units lj                  # Use reduced LJ style units
atom_style atomic         # Uncharged point particles
atom_modify map hash      # Needed for indexing of clusters etc
                          # Used to be able to find where atoms are in relation to each other.

# Define a lattice with which to populate the simulation cell. With units
# set to 'lj' the second argument to the lattice command is the reduced
# density rho* and the spacings are multiples of that required to acheive
# that density. Also define a simulation cell called 'box' in lattice units
# and fill it with atoms. Here we're creating a box which is ten lattice
# constants in each direction.
lattice fcc 1.0 spacing 1 1 1                 # All equal sizes - gives the right reduced density.
Lattice spacing in x,y,z = 1.5874011 1.5874011 1.5874011

region box block 0 10 0 10 0 10 units lattice # Defines a region, "box", in lattice units
create_box 1 box                              # Creates a simulation box as specified above,
Created orthogonal box = (0.0000000 0.0000000 0.0000000) to (15.874011 15.874011 15.874011)
                                              # with one type of atom
create_atoms 1 box                            # Creates particles on lattice points
Created 4000 atoms

# Set the mass of the first (and only) atom type.
mass 1 1.0

# Lennard-Jones interactions between particles, 3.5 sigma cut-off. Apply
# long range tail corrections to energy and pressure and set all coefficients
# to unity since we work in reduced units here. Note that this doesn't shift
# the potential such that it goes to zero at the cutoff. That would require
# pair_modify('shift', 'yes').
pair_style lj/cut  3.5      # non-GPU version
pair_modify tail  yes
pair_coeff 1  1  1.0  1.0   # Intearaction between 1 and 1 set with epsilon = 1 and sigma = 1

write_data data.*
System init for write_data ...
  update every 1 steps, delay 10 steps, check yes

#############################
#   M E L T   S Y S T E M   #
#############################

velocity all create 2.4 9580093 mom yes dist gaussian # Assign velocities
                                                    # Temperature 2.4, random number seed, zero linear momentum
						                                                        # Gaussian distribution

timestep 0.002   # simulation timestep
thermo 1000       # output thermodynamic data every 1000 steps

# Define a fix  in this case with index 1 applied to all
# particles in the simulation. This fix is for simulations
# in the anisotropic NPT ensemble. Note that we use the MTK
# correction.
fix 1 all npt temp 2.4 2.4 0.1 iso 5.68 5.68 0.5 mtk yes tchain 5 pchain 5 # Use NPT ensemble
                                                                         # Set temperature and pressure and damping
                                                                         # Numbers of thermostats in chain and in barostat
run 1000         # run for 10000 steps
Step Temp E_pair E_mol TotEng Press Volume
0          2.4   -8.3859253            0   -4.7868253   -2.2405722         4000
Loop time of 0.22712 on 48 procs for 1000 steps with 4000 atoms

# Equilibrate just above the melting temperature to avoid step fn in T

fix 1 all npt temp 1.25 1.25 0.1 iso 5.68 5.68 0.5 mtk yes tchain 5 pchain 5
run 1000
Step Temp E_pair E_mol TotEng Press Volume
1000    2.3310961   -4.4126417            0  -0.91687173     5.740376    5176.6007
Loop time of 0.213629 on 48 procs for 1000 steps with 4000 atoms

# Small amount of linear quench

fix 1 all npt temp 1.25 1.85 0.1 iso 5.68 5.68 0.5 mtk yes tchain 5 pchain 5
run 2000
Step Temp E_pair E_mol TotEng Press Volume
2000    1.2492981   -5.8103729            0   -3.9368942    5.8537892    4340.8265
Loop time of 0.431261 on 48 procs for 2000 steps with 4000 atoms

#############################
# F R E E Z E  S Y S T E M  #
#############################

# Define solid atoms. This closely follows ten Wolde  Ruiz-Montero and Frenkel  Faraday Discuss  1996  104  93-110
# Compute components of the per-atom q6 vector
compute q6 all orientorder/atom degrees 1 6 components 6 nnn NULL cutoff 1.3 # compute the Q6 parameter.
                                                                             # Use all neighbours within 1.3 unit cell.

# get number of connections
compute coord_number all coord/atom orientorder q6 0.5

# An atom is solid if it has 8 or more connections (of a possible 14)
variable is_solid atom c_coord_number>=8
group solid dynamic all var is_solid    # Must be dynamic to update
dynamic group solid defined

# do clustering
compute cluster solid cluster/atom 1.3 # Create a cluster where all atoms within are solid and max 1.3 units from another member

# define chunks one chunk per cluster
compute clus_chunks solid chunk/atom c_cluster nchunk every compress yes  # Says which atoms are in which chunk

# count the size of each chunk
compute size_chunks solid property/chunk clus_chunks count

# Find the maximum entry in the vector of chunk sizes
variable max_n equal max(c_size_chunks)

# Thermo style which includes this variable
thermo_style custom step temp pe vol v_max_n

thermo 1000

# Reset the npt fix at a lower temperature (below freezing)
fix 1  all npt temp  1.85 1.85  0.1  iso  5.68  5.68  0.5  mtk yes tchain  5  pchain  5

dump dmp2 all dcd 1000 traj_462431.dcd

run 1000000 # 5000000  # Run for this many steps
  update every 1 steps, delay 10 steps, check yes
Step Temp PotEng Volume v_max_n
4000    1.8363419   -5.0037179    4772.3816            1
Averages over the last 501 of 1001 rows, steps 504000 to 1004000:
Temp PotEng Volume v_max_n
1.84939 -4.98295 4803.53 -4.99002e+18
Loop time of 2015.72 on 48 procs for 1000000 steps with 4000 atoms

#clear
#
#next RN
#
#jump SELF
